****|SAP-35|sdf|1|dock4
XX    ILIB10152303213D

 44 47  0  0  1  0              1 V2000
   62.7363   24.7956   23.1750 S   0  0  0  0  0
   63.4327   23.6713   24.2801 C   0  0  0  0  0
   64.4490   22.9267   23.6781 C   0  0  0  0  0
   64.6223   23.3006   22.3029 C   0  0  0  0  0
   63.7588   24.2947   21.9059 C   0  0  0  0  0
   63.6784   24.7515   20.9291 H   0  0  0  0  0
   65.3489   22.8507   21.6381 H   0  0  0  0  0
   65.1229   21.9570   24.4609 C   0  0  0  0  0
   64.7695   21.7355   25.8050 C   0  0  0  0  0
   63.7486   22.5006   26.3712 C   0  0  0  0  0
   63.0753   23.4736   25.6263 C   0  0  0  0  0
   62.2828   24.0621   26.0802 H   0  0  0  0  0
   63.4568   22.3477   27.4091 H   0  0  0  0  0
   65.4788   20.6847   26.6262 C   0  0  0  0  0
   64.9837   19.0065   26.1368 S   0  0  0  0  0
   64.9421   18.2569   27.6934 C   0  0  0  0  0
   63.7010   17.9747   28.1142 N   0  0  0  0  0
   63.5209   17.3738   29.3135 C   0  0  0  0  0
   62.3870   17.0723   29.6696 O   0  0  0  0  0
   64.6218   17.1391   30.0741 N   0  0  0  0  0
   65.7730   17.4577   29.6020 C   0  0  0  0  0
   67.1756   17.1747   30.6076 S   0  0  0  0  0
   67.3927   15.4264   30.1857 C   0  0  0  0  0
   68.6288   15.2010   29.3511 C   0  0  0  0  0
   69.4202   16.2870   28.9534 C   0  0  0  0  0
   70.5585   16.0746   28.1841 C   0  0  0  0  0
   71.2984   17.1223   27.7995 F   0  0  0  0  0
   70.9385   14.7945   27.8016 C   0  0  0  0  0
   70.1731   13.6889   28.1989 C   0  0  0  0  0
   69.0180   13.9042   28.9734 C   0  0  0  0  0
   68.4172   13.0501   29.2884 H   0  0  0  0  0
   70.5839   12.3010   27.7750 C   0  0  0  0  0
   71.8350   11.9795   28.2047 F   0  0  0  0  0
   70.5974   12.1283   26.4240 F   0  0  0  0  0
   69.7591   11.3357   28.2664 F   0  0  0  0  0
   71.8336   14.6674   27.1971 H   0  0  0  0  0
   69.1610   17.3043   29.2361 H   0  0  0  0  0
   67.4519   14.8364   31.1079 H   0  0  0  0  0
   66.5158   15.0618   29.6375 H   0  0  0  0  0
   65.9939   18.0194   28.3824 N   0  0  0  0  0
   62.8903   18.1658   27.5478 H   0  0  0  0  0
   65.2631   20.8377   27.6893 H   0  0  0  0  0
   66.5620   20.7966   26.4988 H   0  0  0  0  0
   65.9143   21.3688   24.0015 H   0  0  0  0  0
  1  2  1  0  0  0
  1  5  1  0  0  0
  2  3  2  0  0  0
  2 11  1  0  0  0
  3  4  1  0  0  0
  3  8  1  0  0  0
  4  5  2  0  0  0
  4  7  1  0  0  0
  5  6  1  0  0  0
  8  9  2  0  0  0
  8 44  1  0  0  0
  9 10  1  0  0  0
  9 14  1  0  0  0
 10 11  2  0  0  0
 10 13  1  0  0  0
 11 12  1  0  0  0
 14 15  1  0  0  0
 14 42  1  0  0  0
 14 43  1  0  0  0
 15 16  1  0  0  0
 16 17  1  0  0  0
 16 40  2  0  0  0
 17 18  1  0  0  0
 17 41  1  0  0  0
 18 19  2  0  0  0
 18 20  1  0  0  0
 20 21  2  0  0  0
 21 22  1  0  0  0
 21 40  1  0  0  0
 22 23  1  0  0  0
 23 24  1  0  0  0
 23 38  1  0  0  0
 23 39  1  0  0  0
 24 25  2  0  0  0
 24 30  1  0  0  0
 25 26  1  0  0  0
 25 37  1  0  0  0
 26 27  1  0  0  0
 26 28  2  0  0  0
 28 29  1  0  0  0
 28 36  1  0  0  0
 29 30  2  0  0  0
 29 32  1  0  0  0
 30 31  1  0  0  0
 32 33  1  0  0  0
 32 34  1  0  0  0
 32 35  1  0  0  0
M  END
> <Gold.ASP.DEInternal>
1.1289

> <Gold.Goldscore.Fitness>
66.0202

> <Gold.Goldscore.External.HBond>
7.1318

> <Gold.Protein.ActiveResidues>
 ILE33   TYR34   GLU87   ILE88   VAL90   ASN91   ALA92   ASP94   ASN95   ARG98  
 ILE118  ASN120  LYS123  GLY124  ILE125  ILE141  PHE142  THR147  SER148  SER149 
 ASN150  TYR151  GLY160  GLY161  ARG162  ASN163  GLY164  TYR165  GLY166  ALA167 
 LYS168  LEU169  THR181  THR215  ILE217  ILE317  GLN376  LYS378  MG904  

> <Gold.Protein.RotatedWaterAtoms>
   32.4470    2.9410   36.3270 O.3 0  0  0  0  0  0  0  0  0  0  0  0  # atno 1    bound_to 2    3    AM1 OFF
   31.8359    3.0941   37.0946 H   0  0  0  0  0  0  0  0  0  0  0  0  # atno 2    bound_to 1    AM1 OFF
   31.9233    2.6242   35.5451 H   0  0  0  0  0  0  0  0  0  0  0  0  # atno 3    bound_to 1    AM1 OFF
   33.1269    2.2507   36.5746 LP  0  0  0  0  0  0  0  0  0  0  0  0  # atno 4    bound_to 1    AM1 OFF
   32.9099    3.7962   36.0938 LP  0  0  0  0  0  0  0  0  0  0  0  0  # atno 5    boun

> <Gold.ASP.Internal.Correction>
0.0813

> <Gold.ASP.Fitness>
38.9088

> <Gold.Goldscore.Internal.HBond>
0.0

> <Gold.Goldscore.Internal.Torsion.Weighted>
-3.561

> <Gold.Protein.RotatedTorsions>
[ 8550 3921 3920 3917 ] final  129.68 input   60.00 | X-H torsion
[ 8556 3927 3926 3923 ] final  -35.76 input   60.00 | X-H torsion
[ 8545 3914 3913 3910 ] final -149.59 input   60.00 | X-H torsion
[ 9505   53   52   50 ] final   88.10 input   60.00 | X-H torsion
[ 11670 4448 4447 4444 ] final  -91.67 input   60.00 | X-H torsion
[ 8370 4172 4171 4168 ] final  -49.45 input   60.00 | X-H torsion
[ 8570 3947 3946 3944 ] final   10.89 input   60.00 | X-H torsion

> <Gold.ASP.DEClash>
1.6923

> <Gold.Goldscore.Constraint.Score>
0.0

> <Gold.Id.Protein>
1ZXM|1ZXM_protein|mol2

> <Gold.Protein.RotatedAtoms>
   75.5033   18.7470   32.3057 H   0  0  0  0  0  0  0  0  0  0  0  0  # atno 8370 bound_to 4172
   62.0098   14.4723   37.1028 H   0  0  0  0  0  0  0  0  0  0  0  0  # atno 8545 bound_to 3914
   59.6115   17.1836   29.4007 H   0  0  0  0  0  0  0  0  0  0  0  0  # atno 8550 bound_to 3921
   63.0084   19.8234   29.1019 H   0  0  0  0  0  0  0  0  0  0  0  0  # atno 8556 bound_to 3927
   56.0175   15.1009   32.5848 H   0  0  0  0  0  0  0  0  0  0  0  0  # atno 8570 bound_to 3947
   67.4360   22.7846   30.6

> <Gold.Version>
5.3.0

> <Gold.Goldscore.Internal.Correction>
4.3684

> <Gold.ASP.Map>
-208.65

> <Gold.Goldscore.Internal.Vdw>
0.6917

> <Gold.Goldscore.Internal.Vdw.Weighted>
0.6917

> <Gold.Goldscore.External.HBond.Weighted>
7.1318

> <Gold.Goldscore.External.Vdw.Weighted>
71.1262

> <Gold.Goldscore.Internal.HBond.Weighted>
0.0

> <Gold.Goldscore.Hbonds>
donor molecule, donor type, donor heavy atom, donor atom, acceptor molecule, acceptor atom, score
      P1  H   758  6690      AM2     1  0.87
      L1  H     9    34       P1   757  0.78
     AM2  H     1     2       P1   774  0.92
     AM2  H     1     3       P1  1497  0.99

> <Gold.Goldscore.External.Vdw>
51.7282

> <Gold.Goldscore.Internal.Torsion>
-3.561

> <Gold.ASP.ASP>
41.73

> <Gold.Goldscore.SBar>
-5.0

> <Gold.Goldscore.Internal.Correction.Weighted>
4.3684

$$$$
