****|SAP-35|sdf|1|dock6
XX    ILIB10152303253D

 44 47  0  0  1  0              1 V2000
   38.3695    1.0500   37.7344 S   0  0  0  0  0
   37.1615    0.4876   38.8273 C   0  0  0  0  0
   37.4905   -0.7640   39.3517 C   0  0  0  0  0
   38.7399   -1.2359   38.8251 C   0  0  0  0  0
   39.3147   -0.3541   37.9400 C   0  0  0  0  0
   40.2460   -0.4674   37.4024 H   0  0  0  0  0
   39.1888   -2.1861   39.0861 H   0  0  0  0  0
   36.5936   -1.3621   40.2709 C   0  0  0  0  0
   35.3942   -0.7229   40.6359 C   0  0  0  0  0
   35.1010    0.5281   40.0906 C   0  0  0  0  0
   35.9739    1.1481   39.1913 C   0  0  0  0  0
   35.7330    2.1222   38.7748 H   0  0  0  0  0
   34.1791    1.0427   40.3571 H   0  0  0  0  0
   34.4334   -1.3775   41.6002 C   0  0  0  0  0
   34.6318   -3.1833   41.6198 S   0  0  0  0  0
   34.0786   -3.5477   40.0237 C   0  0  0  0  0
   34.7927   -4.5083   39.4202 N   0  0  0  0  0
   34.4613   -4.9030   38.1686 C   0  0  0  0  0
   35.0863   -5.8172   37.6423 O   0  0  0  0  0
   33.4428   -4.2511   37.5497 N   0  0  0  0  0
   32.8226   -3.3294   38.1942 C   0  0  0  0  0
   31.5336   -2.4817   37.3706 S   0  0  0  0  0
   31.4303   -1.0828   38.5168 C   0  0  0  0  0
   31.1931    0.2187   37.7922 C   0  0  0  0  0
   32.2373    1.1398   37.6346 C   0  0  0  0  0
   32.0141    2.3382   36.9661 C   0  0  0  0  0
   33.0171    3.2155   36.8344 F   0  0  0  0  0
   30.7665    2.6447   36.4380 C   0  0  0  0  0
   29.7083    1.7340   36.5682 C   0  0  0  0  0
   29.9327    0.5232   37.2492 C   0  0  0  0  0
   29.1159   -0.1920   37.3540 H   0  0  0  0  0
   28.3527    2.0734   36.0008 C   0  0  0  0  0
   27.8490    1.0826   35.2147 F   0  0  0  0  0
   27.4092    2.3094   36.9545 F   0  0  0  0  0
   28.3840    3.1900   35.2226 F   0  0  0  0  0
   30.6287    3.5932   35.9243 H   0  0  0  0  0
   33.2301    0.9362   38.0280 H   0  0  0  0  0
   32.3557   -1.0075   39.1002 H   0  0  0  0  0
   30.6221   -1.2629   39.2355 H   0  0  0  0  0
   33.0987   -2.9400   39.4686 N   0  0  0  0  0
   35.5553   -4.9756   39.8835 H   0  0  0  0  0
   34.6062   -0.9812   42.6077 H   0  0  0  0  0
   33.4035   -1.1225   41.3272 H   0  0  0  0  0
   36.8380   -2.3386   40.6835 H   0  0  0  0  0
  1  2  1  0  0  0
  1  5  1  0  0  0
  2  3  2  0  0  0
  2 11  1  0  0  0
  3  4  1  0  0  0
  3  8  1  0  0  0
  4  5  2  0  0  0
  4  7  1  0  0  0
  5  6  1  0  0  0
  8  9  2  0  0  0
  8 44  1  0  0  0
  9 10  1  0  0  0
  9 14  1  0  0  0
 10 11  2  0  0  0
 10 13  1  0  0  0
 11 12  1  0  0  0
 14 15  1  0  0  0
 14 42  1  0  0  0
 14 43  1  0  0  0
 15 16  1  0  0  0
 16 17  1  0  0  0
 16 40  2  0  0  0
 17 18  1  0  0  0
 17 41  1  0  0  0
 18 19  2  0  0  0
 18 20  1  0  0  0
 20 21  2  0  0  0
 21 22  1  0  0  0
 21 40  1  0  0  0
 22 23  1  0  0  0
 23 24  1  0  0  0
 23 38  1  0  0  0
 23 39  1  0  0  0
 24 25  2  0  0  0
 24 30  1  0  0  0
 25 26  1  0  0  0
 25 37  1  0  0  0
 26 27  1  0  0  0
 26 28  2  0  0  0
 28 29  1  0  0  0
 28 36  1  0  0  0
 29 30  2  0  0  0
 29 32  1  0  0  0
 30 31  1  0  0  0
 32 33  1  0  0  0
 32 34  1  0  0  0
 32 35  1  0  0  0
M  END
> <Gold.ASP.DEInternal>
1.4348

> <Gold.Goldscore.Fitness>
66.0202

> <Gold.Goldscore.External.HBond>
7.1318

> <Gold.Protein.ActiveResidues>
 GLU87   ILE88   VAL90   ASN91   ALA92   ASP94   ASN95   ARG98   ILE118  ASN120 
 LYS123  GLY124  ILE125  ILE141  PHE142  THR147  SER148  SER149  ASN150  TYR151 
 GLY160  GLY161  ARG162  ASN163  GLY164  TYR165  GLY166  ALA167  LYS168  LEU169 
 THR181  THR215  ILE217  ILE317  GLN376  LYS378  ILE33   TYR34   MG903  

> <Gold.Protein.RotatedWaterAtoms>
   32.4470    2.9410   36.3270 O.3 0  0  0  0  0  0  0  0  0  0  0  0  # atno 1    bound_to 2    3    AM1 OFF
   31.8359    3.0941   37.0946 H   0  0  0  0  0  0  0  0  0  0  0  0  # atno 2    bound_to 1    AM1 OFF
   31.9233    2.6242   35.5451 H   0  0  0  0  0  0  0  0  0  0  0  0  # atno 3    bound_to 1    AM1 OFF
   33.1269    2.2507   36.5746 LP  0  0  0  0  0  0  0  0  0  0  0  0  # atno 4    bound_to 1    AM1 OFF
   32.9099    3.7962   36.0938 LP  0  0  0  0  0  0  0  0  0  0  0  0  # atno 5    boun

> <Gold.ASP.Internal.Correction>
0.0967

> <Gold.ASP.Fitness>
38.1867

> <Gold.Goldscore.Internal.HBond>
0.0

> <Gold.Goldscore.Internal.Torsion.Weighted>
-3.561

> <Gold.Protein.RotatedTorsions>
[ 8832 2752 2751 2750 ] final   40.58 input   60.00 | X-H torsion
[ 6909  969  968  965 ] final   78.31 input   59.99 | X-H torsion
[ 6913  975  974  971 ] final  171.28 input   60.00 | X-H torsion
[ 6903  962  961  958 ] final -110.16 input   60.00 | X-H torsion
[ 9081 2997 2996 2994 ] final -130.02 input   60.00 | X-H torsion
[ 7408 1497 1496 1493 ] final -146.65 input   60.00 | X-H torsion
[ 7067 1220 1219 1216 ] final  -55.28 input   60.00 | X-H torsion
[ 6928  995  994  992 ] final -162.22 input   60.0

> <Gold.ASP.DEClash>
3.2246

> <Gold.Goldscore.Constraint.Score>
0.0

> <Gold.Id.Protein>
1ZXM|1ZXM_protein|mol2

> <Gold.Protein.RotatedAtoms>
   41.6060    4.8367   42.5885 H   0  0  0  0  0  0  0  0  0  0  0  0  # atno 6903 bound_to 962 
   41.1908   -2.1272   38.5366 H   0  0  0  0  0  0  0  0  0  0  0  0  # atno 6909 bound_to 969 
   37.2918   -5.1574   40.8399 H   0  0  0  0  0  0  0  0  0  0  0  0  # atno 6913 bound_to 975 
   46.1145    1.6131   40.4637 H   0  0  0  0  0  0  0  0  0  0  0  0  # atno 6928 bound_to 995 
   27.1619   -0.1804   44.6759 H   0  0  0  0  0  0  0  0  0  0  0  0  # atno 7067 bound_to 1220
   28.4425   -0.3320   41.3

> <Gold.Version>
5.3.0

> <Gold.Goldscore.Internal.Correction>
4.3684

> <Gold.ASP.Map>
-214.23

> <Gold.Goldscore.Internal.Vdw>
0.6917

> <Gold.Goldscore.Internal.Vdw.Weighted>
0.6917

> <Gold.Goldscore.External.HBond.Weighted>
7.1318

> <Gold.Goldscore.External.Vdw.Weighted>
71.1262

> <Gold.Goldscore.Internal.HBond.Weighted>
0.0

> <Gold.Goldscore.Hbonds>
donor molecule, donor type, donor heavy atom, donor atom, acceptor molecule, acceptor atom, score
      P1  H   758  6690      AM2     1  0.87
      L1  H     9    34       P1   757  0.78
     AM2  H     1     2       P1   774  0.92
     AM2  H     1     3       P1  1497  0.99

> <Gold.Goldscore.External.Vdw>
51.7282

> <Gold.Goldscore.Internal.Torsion>
-3.561

> <Gold.Goldscore.Internal.Correction.Weighted>
4.3684

> <Gold.ASP.ASP>
42.846

> <Gold.Goldscore.SBar>
-5.0

$$$$
