%NProcShared=8
%chk=opt_geom.chk
%mem=2000MB
#p opt HF/6-31G(d) nosymm iop(6/7=3) gfinput

Ligand optimization

0 1
88
****|SAP-35|sdf|1|dock6
S         38.36950        1.05000       37.73440
C         37.16150        0.48760       38.82730
C         37.49050       -0.76400       39.35170
C         38.73990       -1.23590       38.82510
C         39.31470       -0.35410       37.94000
H         40.24600       -0.46740       37.40240
H         39.18880       -2.18610       39.08610
C         36.59360       -1.36210       40.27090
C         35.39420       -0.72290       40.63590
C         35.10100        0.52810       40.09060
C         35.97390        1.14810       39.19130
H         35.73300        2.12220       38.77480
H         34.17910        1.04270       40.35710
C         34.43340       -1.37750       41.60020
S         34.63180       -3.18330       41.61980
C         34.07860       -3.54770       40.02370
N         34.79270       -4.50830       39.42020
C         34.46130       -4.90300       38.16860
O         35.08630       -5.81720       37.64230
N         33.44280       -4.25110       37.54970
C         32.82260       -3.32940       38.19420
S         31.53360       -2.48170       37.37060
C         31.43030       -1.08280       38.51680
C         31.19310        0.21870       37.79220
C         32.23730        1.13980       37.63460
C         32.01410        2.33820       36.96610
F         33.01710        3.21550       36.83440
C         30.76650        2.64470       36.43800
C         29.70830        1.73400       36.56820
C         29.93270        0.52320       37.24920
H         29.11590       -0.19200       37.35400
C         28.35270        2.07340       36.00080
F         27.84900        1.08260       35.21470
F         27.40920        2.30940       36.95450
F         28.38400        3.19000       35.22260
H         30.62870        3.59320       35.92430
H         33.23010        0.93620       38.02800
H         32.35570       -1.00750       39.10020
H         30.62210       -1.26290       39.23550
N         33.09870       -2.94000       39.46860
H         35.55530       -4.97560       39.88350
H         34.60620       -0.98120       42.60770
H         33.40350       -1.12250       41.32720
H         36.83800       -2.33860       40.68350
S         62.73630       24.79560       23.17500
C         63.43270       23.67130       24.28010
C         64.44900       22.92670       23.67810
C         64.62230       23.30060       22.30290
C         63.75880       24.29470       21.90590
H         63.67840       24.75150       20.92910
H         65.34890       22.85070       21.63810
C         65.12290       21.95700       24.46090
C         64.76950       21.73550       25.80500
C         63.74860       22.50060       26.37120
C         63.07530       23.47360       25.62630
H         62.28280       24.06210       26.08020
H         63.45680       22.34770       27.40910
C         65.47880       20.68470       26.62620
S         64.98370       19.00650       26.13680
C         64.94210       18.25690       27.69340
N         63.70100       17.97470       28.11420
C         63.52090       17.37380       29.31350
O         62.38700       17.07230       29.66960
N         64.62180       17.13910       30.07410
C         65.77300       17.45770       29.60200
S         67.17560       17.17470       30.60760
C         67.39270       15.42640       30.18570
C         68.62880       15.20100       29.35110
C         69.42020       16.28700       28.95340
C         70.55850       16.07460       28.18410
F         71.29840       17.12230       27.79950
C         70.93850       14.79450       27.80160
C         70.17310       13.68890       28.19890
C         69.01800       13.90420       28.97340
H         68.41720       13.05010       29.28840
C         70.58390       12.30100       27.77500
F         71.83500       11.97950       28.20470
F         70.59740       12.12830       26.42400
F         69.75910       11.33570       28.26640
H         71.83360       14.66740       27.19710
H         69.16100       17.30430       29.23610
H         67.45190       14.83640       31.10790
H         66.51580       15.06180       29.63750
N         65.99390       18.01940       28.38240
H         62.89030       18.16580       27.54780
H         65.26310       20.83770       27.68930
H         66.56200       20.79660       26.49880
H         65.91430       21.36880       24.00150


